test/test_files/input_tests/powerflowWECC179_v30.raw
0,   100.00, 30, 0, 1,  60.00     / PSS(R)E 30 RAW
                               100.0

     2,'CORONADO    ', 500.0000,1,     0.000,     0.000,   1,   1,0.98248, -38.2790,   1
     3,'CHOLLA      ', 345.0000,1,     0.000,     0.000,   1,   1,0.98201, -29.5983,   1
     4,'CORONADO    ',  20.0000,2,     0.000,     0.000,   1,   1,1.04000, -31.8595,   1
     5,'CRAIG       ', 345.0000,1,     0.000,     0.000,   1,   1,0.97081,   5.6360,   1
     6,'CRAIG       ',  22.0000,2,     0.000,     0.000,   1,   1,0.95000,  13.0226,   1
     7,'FOURCORN    ', 500.0000,1,     0.000,  -113.000,   1,   1,1.06955, -21.0838,   1
     8,'FOURCORN    ', 345.0000,1,     0.000,  -155.000,   1,   1,1.01031, -18.0156,   1
     9,'FCNGN4CC    ',  22.0000,2,     0.000,     0.000,   1,   1,1.00000, -11.1062,   1
    10,'FOURCORN    ', 230.0000,1,     0.000,     0.000,   1,   1,1.00840, -18.5669,   1
    11,'HAYDEN      ',  20.0000,2,     0.000,     0.000,   1,   1,1.00000,  23.1715,   1
    12,'NAVAJO      ', 500.0000,1,     0.000,  -190.000,   2,   1,1.07019, -36.3224,   1
    13,'NAVAJO 2    ',  26.0000,2,     0.000,     0.000,   2,   1,1.00000, -30.1878,   1
    14,'MOENKOPI    ', 500.0000,1,     0.000,  -391.000,   2,   1,1.06552, -37.2753,   1
    15,'PALOVRD2    ',  24.0000,2,     0.000,     0.000,   2,   1,0.96000, -34.8733,   1
    16,'PALOVRDE    ', 500.0000,1,     0.000,  -146.000,   2,   1,1.04613, -42.8416,   1
    17,'SAN JUAN    ', 345.0000,1,     0.000,   390.000,   1,   1,1.03551, -17.2653,   1
    18,'SJUAN G4    ',  22.0000,2,     0.000,     0.000,   1,   1,1.00000, -14.2778,   1
    19,'WESTWING    ', 500.0000,1,     0.000,  -427.000,   2,   1,1.05341, -42.7384,   1
    20,'NAVAJO1     ', 500.0000,1,     0.000,     0.000,   2,   1,1.06829, -35.1997,   1
    21,'NAVAJO2     ', 500.0000,1,     0.000,     0.000,   2,   1,1.05876, -38.4102,   1
    22,'NAVAJO3     ', 500.0000,1,     0.000,     0.000,   2,   1,1.04564, -34.2684,   1
    23,'NAVAJO4     ', 500.0000,1,     0.000,     0.000,   2,   1,1.02390, -44.8532,   1
    24,'MOENKOP1    ', 500.0000,1,     0.000,     0.000,   2,   1,1.05432, -35.5892,   1
    25,'MOENKOP2    ', 500.0000,1,     0.000,     0.000,   2,   1,1.03922, -44.4573,   1
    26,'MOENKOP3    ', 500.0000,1,     0.000,     0.000,   2,   1,1.05064, -28.7366,   1
    27,'MOENKOP4    ', 500.0000,1,     0.000,     0.000,   2,   1,1.03311, -53.5236,   1
    28,'FOURCOR1    ', 500.0000,1,     0.000,     0.000,   1,   1,1.06717, -19.0573,   1
    29,'FOURCOR2    ', 500.0000,1,     0.000,     0.000,   1,   1,1.06590, -40.2829,   1
    30,'CANAD G1    ',  20.0000,2,     0.000,     0.000,   1,   1,1.00000,   4.8754,   1
    31,'CANADA      ', 500.0000,1,     0.000,     0.000,   1,   1,1.03637,   1.0849,   1
    32,'CANALB      ', 500.0000,1,     0.000,     0.000,   1,   1,1.08156,  28.7616,   1
    33,'CA230TO     ', 230.0000,1,     0.000,     0.000,   1,   1,0.98075,  33.2494,   1
    34,'CA230       ', 230.0000,1,     0.000,     0.000,   1,   1,1.00133,  42.1281,   1
    35,'CMAIN GM    ',  20.0000,2,     0.000,     0.000,   1,   1,1.02000,  47.0438,   1
    36,'BRIDGER2    ',  22.0000,2,     0.000,     0.000,   1,   1,1.00900,  -9.0264,   1
    37,'ADELANTO    ', 500.0000,1,     0.000,   912.000,   2,   1,1.04370, -52.8146,   1
    38,'ADELAN&1    ', 500.0000,1,     0.000,     0.000,   2,   1,1.06272, -56.3952,   1
    39,'CASTAIC     ', 230.0000,1,     0.000,     0.000,   2,   1,1.01873, -57.2467,   1
    40,'CASTAI4G    ',  18.0000,2,     0.000,     0.000,   2,   1,1.02000, -55.9885,   1
    41,'GLENDAL     ', 230.0000,1,     0.000,     0.000,   2,   1,1.00678, -61.3383,   1
    42,'HAYNES      ', 230.0000,1,     0.000,     0.000,   2,   1,1.01972, -61.1580,   1
    43,'HAYNES3G    ',  18.0000,2,     0.000,     0.000,   2,   1,1.00000, -57.8321,   1
    44,'INTERMT     ', 345.0000,1,     0.000,   430.000,   1,   1,1.04510, -25.2099,   1
    45,'INTERM1G    ',  26.0000,2,     0.000,     0.000,   1,   1,1.05000, -20.5580,   1
    46,'OLIVE       ', 230.0000,1,     0.000,     0.000,   2,   1,1.01711, -57.5934,   1
    47,'OWENS G     ',  11.5000,2,     0.000,     0.000,   2,   1,1.02000, -57.5493,   1
    48,'RINALDI     ', 230.0000,1,     0.000,     0.000,   2,   1,1.01576, -57.8163,   1
    49,'RINALDI     ', 500.0000,1,     0.000,   -80.000,   2,   1,1.05497, -55.8105,   1
    50,'RIVER       ', 230.0000,1,     0.000,     0.000,   2,   1,1.00858, -62.3740,   1
    51,'STA B       ', 138.0000,1,     0.000,     0.000,   2,   1,1.01753, -62.5682,   1
    52,'STA B1      ', 287.0000,1,     0.000,     0.000,   2,   1,1.02144, -61.3806,   1
    53,'STA B2      ', 287.0000,1,     0.000,     0.000,   2,   1,1.02144, -61.3806,   1
    54,'STA BLD     ', 230.0000,1,     0.000,     0.000,   2,   1,1.01218, -62.7229,   1
    55,'STA E       ', 230.0000,1,     0.000,     0.000,   2,   1,1.00785, -60.3951,   1
    56,'STA E       ', 500.0000,1,     0.000,     0.000,   2,   1,1.02602, -58.0957,   1
    57,'STA F       ', 230.0000,1,     0.000,     0.000,   2,   1,1.00980, -62.4306,   1
    58,'STA G       ', 230.0000,1,     0.000,     0.000,   2,   1,1.00795, -61.6285,   1
    59,'STA J       ', 230.0000,1,     0.000,     0.000,   2,   1,1.01295, -58.9603,   1
    60,'SYLMARLA    ', 230.0000,1,     0.000,  2146.000,   2,   1,1.01890, -56.9214,   1
    61,'SYLMAR S    ', 230.0000,1,     0.000,     0.000,   2,   1,1.00172, -57.9773,   1
    62,'VALLEY      ', 230.0000,1,     0.000,     0.000,   2,   1,1.01126, -59.1617,   1
    63,'VICTORVL    ', 287.0000,1,     0.000,  -108.000,   2,   1,1.03621, -55.1290,   1
    64,'VICTORVL    ', 500.0000,1,     0.000,     0.000,   2,   1,1.04304, -53.2599,   1
    65,'MONTA G1    ',  20.0000,2,     0.000,     0.000,   1,   1,1.00000,  31.4608,   1
    66,'MONTANA     ', 500.0000,1,     0.000,     0.000,   1,   1,1.05921,  23.1476,   1
    67,'BIG EDDY    ', 115.0000,1,     0.000,     0.000,   1,   1,1.04632, -24.1193,   1
    68,'BIG EDDY    ', 230.0000,1,     0.000,   576.850,   1,   1,1.04532, -21.4252,   1
    69,'BIG EDDY    ', 500.0000,1,     0.000,     0.000,   1,   1,1.06827, -19.9018,   1
    70,'DALLES21    ',  13.8000,2,     0.000,     0.000,   1,   1,1.05500, -14.7280,   1
    71,'CELILO      ', 230.0000,1,     0.000,   792.000,   1,   1,1.04006, -21.9723,   1
    72,'CELILOCA    ', 500.0000,1,     0.000,   462.000,   1,   1,1.06862, -20.0281,   1
    73,'COLSTRP     ', 500.0000,1,     0.000,     0.000,   1,   1,1.06705,  -9.5246,   1
    74,'COULEE      ', 500.0000,1,     0.000,     0.000,   1,   1,1.08346, -13.1942,   1
    75,'GARRISON    ', 500.0000,1,     0.000,     0.000,   1,   1,1.02759, -22.1245,   1
    76,'JOHN DAY    ', 500.0000,1,     0.000,  1019.350,   1,   1,1.06406, -17.3312,   1
    77,'JOHN DAY    ',  13.8000,3,     0.000,     0.000,   1,   1,1.00000,   0.0000,   1
    78,'HANFORD     ', 500.0000,1,     0.000,   550.000,   1,   1,1.06266, -13.1329,   1
    79,'NORTH G3    ',  20.0000,2,     0.000,     0.000,   1,   1,1.00000,  10.9062,   1
    80,'NORTH       ', 500.0000,1,     0.000,  1200.000,   1,   1,1.05804,  -3.4591,   1
    81,'BURNS       ', 500.0000,1,     0.000,  -220.000,   1,   1,1.03191, -27.8761,   1
    82,'GRIZZLY     ', 500.0000,1,     0.000,  -674.000,   1,   1,1.04960, -24.9860,   1
    83,'MALIN       ', 500.0000,1,     0.000,  -110.000,   1,   1,1.03701, -32.2701,   1
    84,'MIDPOINT    ', 500.0000,1,     0.000,  -220.000,   1,   1,1.05825, -16.0131,   1
    85,'MIDPOINT    ', 345.0000,1,     0.000,  -870.000,   1,   1,0.99702, -13.0597,   1
    86,'SUMMER L    ', 500.0000,1,     0.000,     0.000,   1,   1,1.04207, -26.7454,   1
    87,'GRIZZLY1    ', 500.0000,1,     0.000,     0.000,   1,   1,1.05227, -27.4984,   1
    88,'GRIZZLY2    ', 500.0000,1,     0.000,     0.000,   1,   1,1.04937, -23.2216,   1
    89,'MALIN1      ', 500.0000,1,     0.000,     0.000,   1,   1,1.03588, -22.3178,   1
    90,'MALIN2      ', 500.0000,1,     0.000,     0.000,   1,   1,1.04433, -28.4432,   1
    91,'GRIZZLY3    ', 500.0000,1,     0.000,     0.000,   1,   1,1.06285, -30.4335,   1
    92,'GRIZZLY4    ', 500.0000,1,     0.000,     0.000,   1,   1,1.05083, -25.0711,   1
    93,'GRIZZLY5    ', 500.0000,1,     0.000,     0.000,   1,   1,1.05124, -31.2044,   1
    94,'GRIZZLY6    ', 500.0000,1,     0.000,     0.000,   1,   1,1.05226, -25.8201,   1
    95,'GRIZZLY7    ', 500.0000,1,     0.000,     0.000,   1,   1,1.06235, -30.7377,   1
    96,'GRIZZLY8    ', 500.0000,1,     0.000,     0.000,   1,   1,1.05053, -25.0715,   1
    97,'GRIZZLY9    ', 500.0000,1,     0.000,     0.000,   1,   1,1.05047, -31.5519,   1
    98,'GRIZZLYA    ', 500.0000,1,     0.000,     0.000,   1,   1,1.05154, -25.8606,   1
    99,'BURNS1      ', 500.0000,1,     0.000,     0.000,   1,   1,0.97031,  -5.2489,   1
   100,'CORTINA     ', 200.0000,1,     0.000,     0.000,   3,   1,1.11992, -46.4373,   1
   101,'COTWDPGE    ', 200.0000,1,     0.000,     0.000,   3,   1,1.12764, -41.9905,   1
   102,'DIABLO      ', 500.0000,1,     0.000,     0.000,   2,   1,1.04026, -57.3676,   1
   103,'DIABLO1     ',  25.0000,2,     0.000,     0.000,   2,   1,0.98000, -53.4959,   1
   104,'GATES       ', 500.0000,1,     0.000,   -91.000,   2,   1,1.02858, -58.9377,   1
   105,'GLENN       ', 200.0000,1,     0.000,     0.000,   3,   1,1.13131, -46.0959,   1
   106,'LOGAN CR    ', 200.0000,1,     0.000,     0.000,   3,   1,1.13106, -46.3710,   1
   107,'LOSBANOS    ', 500.0000,1,     0.000,     0.000,   2,   1,1.02876, -60.9496,   1
   108,'MIDWAY      ', 500.0000,1,     0.000,  -327.000,   2,   1,1.03806, -59.9184,   1
   109,'MIDWAY      ', 200.0000,1,     0.000,  -130.000,   2,   1,1.14120, -63.7809,   1
   110,'MOSSLAND    ', 500.0000,1,     0.000,     0.000,   2,   1,1.02567, -61.2394,   1
   111,'OLINDA      ', 500.0000,1,     0.000,     0.000,   3,   1,1.02212, -40.7501,   1
   112,'ROUND MT    ',  20.0000,2,     0.000,     0.000,   3,   1,1.02000, -25.7222,   1
   113,'ROUND MT    ', 200.0000,1,     0.000,  -128.000,   3,   1,1.11579, -35.8135,   1
   114,'ROUND MT    ', 500.0000,1,     0.000,   -91.000,   3,   1,1.01927, -37.5432,   1
   115,'TABLE MT    ', 500.0000,1,     0.000,   -91.000,   3,   1,0.99928, -42.0037,   1
   116,'TEVATR      ',  20.0000,2,     0.000,     0.000,   3,   1,1.05000, -47.7593,   1
   117,'TEVATR      ', 200.0000,1,     0.000,   -32.000,   3,   1,1.11915, -51.6541,   1
   118,'TEVATR2     ',  20.0000,2,     0.000,     0.000,   3,   1,1.00000, -41.1195,   1
   119,'TEVATR      ', 500.0000,1,     0.000,  1500.000,   3,   1,0.98834, -49.4138,   1
   120,'OLINDA1     ', 500.0000,1,     0.000,     0.000,   3,   1,1.03217, -33.1214,   1
   121,'OLINDA2     ', 500.0000,1,     0.000,     0.000,   3,   1,1.00128, -48.3318,   1
   122,'OLINDA3     ', 500.0000,1,     0.000,     0.000,   3,   1,1.01184, -40.4692,   1
   123,'OLINDA4     ', 500.0000,1,     0.000,     0.000,   3,   1,0.98022, -57.5423,   1
   124,'ROUND1      ', 500.0000,1,     0.000,     0.000,   3,   1,1.02383, -31.1979,   1
   125,'ROUND2      ', 500.0000,1,     0.000,     0.000,   3,   1,0.99930, -46.3529,   1
   126,'ROUND3      ', 500.0000,1,     0.000,     0.000,   3,   1,1.02383, -31.1979,   1
   127,'ROUND4      ', 500.0000,1,     0.000,     0.000,   3,   1,0.99930, -46.3529,   1
   128,'TABLE1      ', 500.0000,1,     0.000,     0.000,   3,   1,0.99556, -35.2852,   1
   129,'TABLE2      ', 500.0000,1,     0.000,     0.000,   3,   1,0.99530, -56.0955,   1
   130,'TABLE3      ', 500.0000,1,     0.000,     0.000,   3,   1,1.00119, -36.9030,   1
   131,'TABLE4      ', 500.0000,1,     0.000,     0.000,   3,   1,0.99112, -51.9842,   1
   132,'TEVATR1     ', 500.0000,1,     0.000,     0.000,   2,   1,0.97305, -47.1931,   1
   133,'TEVATR2     ', 500.0000,1,     0.000,     0.000,   2,   1,1.04698, -63.3542,   1
   134,'TEVATR3     ', 500.0000,1,     0.000,     0.000,   2,   1,0.96652, -45.1443,   1
   135,'GATES1      ', 500.0000,1,     0.000,     0.000,   2,   1,1.04281, -61.4334,   1
   136,'DEVERS      ', 500.0000,1,     0.000,     0.000,   2,   1,1.02980, -56.4480,   1
   137,'EAGLROCK    ', 230.0000,1,     0.000,     0.000,   2,   1,0.97564, -60.8351,   1
   138,'ELDORADO    ',  20.0000,2,     0.000,     0.000,   2,   1,1.02000, -37.7202,   1
   139,'ELDORADO    ', 500.0000,1,     0.000,  -319.000,   2,   1,1.04646, -44.8414,   1
   140,'LITEHIPE    ',  20.0000,2,     0.000,     0.000,   2,   1,0.91743, -50.3847,   1
   141,'LITEHIPE    ',  12.4700,1,     0.000,     0.000,   2,   1,0.91914, -57.4900,   1
   142,'LUGO        ', 500.0000,1,     0.000,     0.000,   2,   1,1.04036, -57.3883,   1
   143,'MESA CAL    ', 230.0000,1,     0.000,     0.000,   2,   1,0.94776, -60.8762,   1
   144,'MIRALOMA    ',  20.0000,2,     0.000,     0.000,   2,   1,1.05000, -57.0732,   1
   145,'MIRALOMA    ', 500.0000,1,     0.000,   400.000,   2,   1,1.02866, -61.3333,   1
   146,'MIRALOMA    ', 230.0000,1,     0.000,     0.000,   2,   1,1.02215, -61.3065,   1
   147,'MOHAVE      ', 500.0000,1,     0.000,  -196.000,   2,   1,1.06609, -40.9199,   1
   148,'MOHAV1CC    ',  22.0000,2,     0.000,     0.000,   2,   1,1.05000, -32.6232,   1
   149,'PARDEE      ',  20.0000,2,     0.000,     0.000,   2,   1,1.01000, -49.1979,   1
   150,'PARDEE      ', 230.0000,1,     0.000,     0.000,   2,   1,0.99119, -61.4517,   1
   151,'SERRANO     ', 500.0000,1,     0.000,     0.000,   2,   1,1.02924, -62.0239,   1
   152,'VALLEY      ', 500.0000,1,     0.000,     0.000,   2,   1,1.02844, -60.2677,   1
   153,'VINCENT     ', 500.0000,1,     0.000,     0.000,   2,   1,1.04053, -59.9997,   1
   154,'VINCENT     ', 230.0000,1,     0.000,  -190.000,   2,   1,0.97326, -62.0758,   1
   155,'CAMP WIL    ', 345.0000,1,     0.000,   -60.000,   1,   1,1.03403, -21.4000,   1
   156,'BENLOMND    ', 345.0000,1,     0.000,     0.000,   1,   1,1.03525, -21.2441,   1
   157,'BENLOMND    ', 230.0000,1,     0.000,     0.000,   1,   1,1.03847, -22.1413,   1
   158,'EMERY       ', 345.0000,1,     0.000,  -220.000,   1,   1,1.03407, -14.0200,   1
   159,'EMERY       ',  20.0000,2,     0.000,     0.000,   1,   1,1.05000,  -9.3277,   1
   160,'MONA        ', 345.0000,1,     0.000,     0.000,   1,   1,1.04577, -21.5042,   1
   161,'NAUGHTON    ', 230.0000,1,     0.000,     0.000,   1,   1,1.04216, -18.6874,   1
   162,'NAUGHT      ',  20.0000,2,     0.000,     0.000,   1,   1,1.00000, -15.8859,   1
   163,'PINTO PS    ', 345.0000,1,     0.000,     0.000,   1,   1,1.03839, -17.4582,   1
   164,'PINTO       ', 345.0000,1,     0.000,   -18.000,   1,   1,1.04319, -17.1444,   1
   165,'SPAN FRK    ', 345.0000,1,     0.000,     0.000,   1,   1,1.02738, -20.1048,   1
   166,'SIGURD      ', 345.0000,1,     0.000,   -50.000,   1,   1,1.04477, -19.9417,   1
   167,'TERMINAL    ', 345.0000,1,     0.000,     0.000,   1,   1,1.02966, -22.0966,   1
   168,'MALIN3      ', 500.0000,1,     0.000,     0.000,   3,   1,1.04266, -28.1674,   1
   169,'MALIN4      ', 500.0000,1,     0.000,     0.000,   3,   1,1.01434, -41.7888,   1
   170,'MALIN5      ', 500.0000,1,     0.000,     0.000,   3,   1,1.04328, -27.3004,   1
   171,'MALIN6      ', 500.0000,1,     0.000,     0.000,   3,   1,1.01587, -41.8211,   1
   172,'MALIN7      ', 500.0000,1,     0.000,     0.000,   3,   1,1.03990, -25.7859,   1
   173,'MALIN8      ', 500.0000,1,     0.000,     0.000,   3,   1,1.02173, -47.3654,   1
   174,'MIDWAY1     ', 500.0000,1,     0.000,     0.000,   2,   1,1.02551, -59.8501,   1
   175,'MIDWAY2     ', 500.0000,1,     0.000,     0.000,   2,   1,1.03395, -60.0672,   1
   176,'MIDWAY3     ', 500.0000,1,     0.000,     0.000,   2,   1,1.03806, -59.9184,   1
   177,'MIDWAY4     ', 500.0000,1,     0.000,     0.000,   2,   1,1.04053, -59.9997,   1
   178,'MIDWAY5     ', 500.0000,1,     0.000,     0.000,   2,   1,1.02497, -59.8534,   1
   179,'MIDWAY6     ', 500.0000,1,     0.000,     0.000,   2,   1,1.03640, -60.0572,   1
   180,'BURNS2      ', 500.0000,1,     0.000,  -220.000,   1,   1,0.98432, -17.2148,   1
 0 /End of Bus data, Begin Load data
     2,'BL',1,   1,   1,     0.000,     0.000,     0.000,     0.000,  1750.000,    56.000,   1
     4,'BL',1,   1,   1,     0.000,     0.000,     0.000,     0.000,   100.000,     0.000,   1
     5,'BL',1,   1,   1,     0.000,     0.000,     0.000,     0.000,  2350.000,   127.000,   1
     6,'BL',1,   1,   1,     0.000,     0.000,     0.000,     0.000,   100.000,     0.000,   1
     8,'BL',1,   1,   1,     0.000,     0.000,     0.000,     0.000,   239.000,    56.000,   1
     9,'BL',1,   1,   1,     0.000,     0.000,     0.000,     0.000,   100.000,     0.000,   1
    10,'BL',1,   1,   1,     0.000,     0.000,     0.000,     0.000,   139.700,   -23.800,   1
    11,'BL',1,   1,   1,     0.000,     0.000,     0.000,     0.000,   100.000,     0.000,   1
    12,'BL',1,   2,   1,     0.000,     0.000,     0.000,     0.000,    90.000,   -70.000,   1
    13,'BL',1,   2,   1,     0.000,     0.000,     0.000,     0.000,   100.000,     0.000,   1
    15,'BL',1,   2,   1,     0.000,     0.000,     0.000,     0.000,   100.000,     0.000,   1
    16,'BL',1,   2,   1,     0.000,     0.000,     0.000,     0.000,   793.400,  -207.000,   1
    17,'BL',1,   1,   1,     0.000,     0.000,     0.000,     0.000,   840.000,    -5.000,   1
    18,'BL',1,   1,   1,     0.000,     0.000,     0.000,     0.000,   100.000,     0.000,   1
    19,'BL',1,   2,   1,     0.000,     0.000,     0.000,     0.000,   617.000,    69.000,   1
    30,'BL',1,   1,   1,     0.000,     0.000,     0.000,     0.000,   100.000,     0.000,   1
    31,'BL',1,   1,   1,     0.000,     0.000,     0.000,     0.000,  4400.000, -1000.000,   1
    34,'BL',1,   1,   1,     0.000,     0.000,     0.000,     0.000,  3600.000,  -700.000,   1
    35,'BL',1,   1,   1,     0.000,     0.000,     0.000,     0.000,   100.000,     0.000,   1
    36,'BL',1,   1,   1,     0.000,     0.000,     0.000,     0.000,   100.000,     0.000,   1
    37,'BL',1,   2,   1,     0.000,     0.000,     0.000,     0.000, -1862.000,  -971.000,   1
    40,'BL',1,   2,   1,     0.000,     0.000,     0.000,     0.000,   100.000,     0.000,   1
    41,'BL',1,   2,   1,     0.000,     0.000,     0.000,     0.000,   135.000,   -27.000,   1
    43,'BL',1,   2,   1,     0.000,     0.000,     0.000,     0.000,   100.000,     0.000,   1
    44,'BL',1,   1,   1,     0.000,     0.000,     0.000,     0.000,  2053.000,  -907.100,   1
    45,'BL',1,   1,   1,     0.000,     0.000,     0.000,     0.000,   100.000,     0.000,   1
    46,'BL',1,   2,   1,     0.000,     0.000,     0.000,     0.000,   -72.800,    17.000,   1
    47,'BL',1,   2,   1,     0.000,     0.000,     0.000,     0.000,   100.000,     0.000,   1
    48,'BL',1,   2,   1,     0.000,     0.000,     0.000,     0.000,   121.000,   -25.000,   1
    50,'BL',1,   2,   1,     0.000,     0.000,     0.000,     0.000,   320.000,   -65.000,   1
    51,'BL',1,   2,   1,     0.000,     0.000,     0.000,     0.000,   237.200,    63.200,   1
    54,'BL',1,   2,   1,     0.000,     0.000,     0.000,     0.000,   138.000,   -28.000,   1
    55,'BL',1,   2,   1,     0.000,     0.000,     0.000,     0.000,   807.800,  -132.100,   1
    57,'BL',1,   2,   1,     0.000,     0.000,     0.000,     0.000,   117.000,   -24.000,   1
    58,'BL',1,   2,   1,     0.000,     0.000,     0.000,     0.000,   121.000,   -25.000,   1
    59,'BL',1,   2,   1,     0.000,     0.000,     0.000,     0.000,   887.700,     6.200,   1
    60,'BL',1,   2,   1,     0.000,     0.000,     0.000,     0.000, -2771.000, -1654.000,   1
    61,'BL',1,   2,   1,     0.000,     0.000,     0.000,     0.000,   401.000,   -80.600,   1
    62,'BL',1,   2,   1,     0.000,     0.000,     0.000,     0.000,   205.200,   -17.600,   1
    63,'BL',1,   2,   1,     0.000,     0.000,     0.000,     0.000,  -129.000,   -32.200,   1
    65,'BL',1,   1,   1,     0.000,     0.000,     0.000,     0.000,   100.000,     0.000,   1
    66,'BL',1,   1,   1,     0.000,     0.000,     0.000,     0.000,  1700.000,  -300.000,   1
    67,'BL',1,   1,   1,     0.000,     0.000,     0.000,     0.000,   160.000,   -31.250,   1
    68,'BL',1,   1,   1,     0.000,     0.000,     0.000,     0.000,   -67.500,  -160.000,   1
    69,'BL',1,   1,   1,     0.000,     0.000,     0.000,     0.000,   -44.200,   -22.000,   1
    70,'BL',1,   1,   1,     0.000,     0.000,     0.000,     0.000,   100.000,     0.000,   1
    71,'BL',1,   1,   1,     0.000,     0.000,     0.000,     0.000,  3137.000, -1681.000,   1
    73,'BL',1,   1,   1,     0.000,     0.000,     0.000,     0.000, -1525.000,    50.000,   1
    75,'BL',1,   1,   1,     0.000,     0.000,     0.000,     0.000,  2584.000,  -394.000,   1
    76,'BL',1,   1,   1,     0.000,     0.000,     0.000,     0.000,  3200.000, -1100.000,   1
    77,'BL',1,   1,   1,     0.000,     0.000,     0.000,     0.000,   100.000,     0.000,   1
    78,'BL',1,   1,   1,     0.000,     0.000,     0.000,     0.000,  3500.000,  -500.000,   1
    79,'BL',1,   1,   1,     0.000,     0.000,     0.000,     0.000,   100.000,     0.000,   1
    80,'BL',1,   1,   1,     0.000,     0.000,     0.000,     0.000,  5000.000,  -400.000,   1
    82,'BL',1,   1,   1,     0.000,     0.000,     0.000,     0.000,   -66.600,    97.000,   1
    83,'BL',1,   1,   1,     0.000,     0.000,     0.000,     0.000,  -339.000,   119.000,   1
    85,'BL',1,   1,   1,     0.000,     0.000,     0.000,     0.000,   610.000,   414.000,   1
   100,'BL',1,   3,   1,     0.000,     0.000,     0.000,     0.000,   -43.300,   -20.000,   1
   101,'BL',1,   3,   1,     0.000,     0.000,     0.000,     0.000,   210.400,    77.000,   1
   102,'BL',1,   2,   1,     0.000,     0.000,     0.000,     0.000,    50.000,   -25.000,   1
   103,'BL',1,   2,   1,     0.000,     0.000,     0.000,     0.000,   100.000,     0.000,   1
   104,'BL',1,   2,   1,     0.000,     0.000,     0.000,     0.000,   305.000,     7.600,   1
   105,'BL',1,   3,   1,     0.000,     0.000,     0.000,     0.000,    27.500,     0.100,   1
   106,'BL',1,   3,   1,     0.000,     0.000,     0.000,     0.000,     8.010,     0.000,   1
   107,'BL',1,   2,   1,     0.000,     0.000,     0.000,     0.000,   265.000,   -14.000,   1
   108,'BL',1,   2,   1,     0.000,     0.000,     0.000,     0.000,    55.600,   329.000,   1
   109,'BL',1,   2,   1,     0.000,     0.000,     0.000,     0.000,   777.600,   -32.600,   1
   110,'BL',1,   2,   1,     0.000,     0.000,     0.000,     0.000,    40.000,   -21.500,   1
   111,'BL',1,   3,   1,     0.000,     0.000,     0.000,     0.000,  -189.000,   -61.500,   1
   112,'BL',1,   3,   1,     0.000,     0.000,     0.000,     0.000,   100.000,     0.000,   1
   113,'BL',1,   3,   1,     0.000,     0.000,     0.000,     0.000,   148.000,     0.000,   1
   115,'BL',1,   3,   1,     0.000,     0.000,     0.000,     0.000,    -0.700,  -118.500,   1
   116,'BL',1,   3,   1,     0.000,     0.000,     0.000,     0.000,   100.000,     0.000,   1
   117,'BL',1,   3,   1,     0.000,     0.000,     0.000,     0.000,   884.000,   -54.800,   1
   118,'BL',1,   3,   1,     0.000,     0.000,     0.000,     0.000,   100.000,     0.000,   1
   119,'BL',1,   3,   1,     0.000,     0.000,     0.000,     0.000,  5661.000, -3491.000,   1
   136,'BL',1,   2,   1,     0.000,     0.000,     0.000,     0.000,   856.000,   -19.600,   1
   137,'BL',1,   2,   1,     0.000,     0.000,     0.000,     0.000,   175.000,   -18.000,   1
   138,'BL',1,   2,   1,     0.000,     0.000,     0.000,     0.000,   100.000,     0.000,   1
   139,'BL',1,   2,   1,     0.000,     0.000,     0.000,     0.000,   902.300,    11.400,   1
   140,'BL',1,   2,   1,     0.000,     0.000,     0.000,     0.000,   100.000,     0.000,   1
   141,'BL',1,   2,   1,     0.000,     0.000,     0.000,     0.000,  3000.000,  -602.300,   1
   142,'BL',1,   2,   1,     0.000,     0.000,     0.000,     0.000,   204.200,    28.200,   1
   143,'BL',1,   2,   1,     0.000,     0.000,     0.000,     0.000,   377.400,   -64.500,   1
   144,'BL',1,   2,   1,     0.000,     0.000,     0.000,     0.000,   100.000,     0.000,   1
   145,'BL',1,   2,   1,     0.000,     0.000,     0.000,     0.000,  3098.000, -1189.000,   1
   148,'BL',1,   2,   1,     0.000,     0.000,     0.000,     0.000,   100.000,     0.000,   1
   149,'BL',1,   2,   1,     0.000,     0.000,     0.000,     0.000,   100.000,     0.000,   1
   150,'BL',1,   2,   1,     0.000,     0.000,     0.000,     0.000,  3118.000,   -78.000,   1
   151,'BL',1,   2,   1,     0.000,     0.000,     0.000,     0.000,  1230.000,   -72.800,   1
   152,'BL',1,   2,   1,     0.000,     0.000,     0.000,     0.000,   406.000,   -41.000,   1
   154,'BL',1,   2,   1,     0.000,     0.000,     0.000,     0.000,  1066.000,    10.800,   1
   155,'BL',1,   1,   1,     0.000,     0.000,     0.000,     0.000,   457.700,   -81.700,   1
   156,'BL',1,   1,   1,     0.000,     0.000,     0.000,     0.000,    33.900,   -11.900,   1
   157,'BL',1,   1,   1,     0.000,     0.000,     0.000,     0.000,   148.000,     7.900,   1
   158,'BL',1,   1,   1,     0.000,     0.000,     0.000,     0.000,   116.100,   -38.400,   1
   159,'BL',1,   1,   1,     0.000,     0.000,     0.000,     0.000,   100.000,     0.000,   1
   160,'BL',1,   1,   1,     0.000,     0.000,     0.000,     0.000,   -62.000,   -12.800,   1
   161,'BL',1,   1,   1,     0.000,     0.000,     0.000,     0.000,   255.000,  -100.000,   1
   162,'BL',1,   1,   1,     0.000,     0.000,     0.000,     0.000,   100.000,     0.000,   1
   164,'BL',1,   1,   1,     0.000,     0.000,     0.000,     0.000,    31.600,   -11.500,   1
   165,'BL',1,   1,   1,     0.000,     0.000,     0.000,     0.000,   141.200,   -71.400,   1
   166,'BL',1,   1,   1,     0.000,     0.000,     0.000,     0.000,   379.000,    43.000,   1
   167,'BL',1,   1,   1,     0.000,     0.000,     0.000,     0.000,   185.000,   -78.500,   1
 0 /End of Load data, Begin Generator data
     4,'1 ',   800.000,   103.049,   300.000,  -300.000,1.04000,     0,   914.000,   0.00000,   0.14500,   0.00000,   0.00000,1.00000,1,  100.0,  9999.000,     0.000,   1,1.0000
     6,'1 ',  1048.000,   -97.834,   400.000,  -400.000,0.95000,     0,  1488.000,   0.00000,   0.14000,   0.00000,   0.00000,1.00000,1,  100.0,  9999.000,     0.000,   1,1.0000
     9,'1 ',  2160.000,   -50.344,   700.000,  -500.000,1.00000,     0,  2458.000,   0.00000,   0.15500,   0.00000,   0.00000,1.00000,1,  100.0,  9999.000,     0.000,   1,1.0000
    11,'1 ',  2050.000,   495.380,   900.000,  -900.000,1.00000,     0,  3000.000,   0.00000,   0.14000,   0.00000,   0.00000,1.00000,1,  100.0,  9999.000,     0.000,   1,1.0000
    13,'1 ',  1690.000,   221.566,   700.000,  -280.000,1.00000,     0,  3540.000,   0.00000,   0.13000,   0.00000,   0.00000,1.00000,1,  100.0,  9999.000,     0.000,   1,1.0000
    15,'1 ',  2640.000,   421.964,  1300.000,  -900.000,0.96000,     0,  3118.000,   0.00000,   0.22500,   0.00000,   0.00000,1.00000,1,  100.0,  9999.000,     0.000,   1,1.0000
    18,'1 ',   962.000,   150.035,   300.000,  -300.000,1.00000,     0,  2054.000,   0.00000,   0.14500,   0.00000,   0.00000,1.00000,1,  100.0,  9999.000,     0.000,   1,1.0000
    30,'1 ',  4450.000,  1009.648,  4000.000, -4000.000,1.00000,     0,  9004.000,   0.00000,   0.09000,   0.00000,   0.00000,1.00000,1,  100.0,  9999.000,     0.000,   1,1.0000
    35,'1 ',  4480.000,  1140.099,  5320.000, -3500.000,1.02000,     0,  6100.000,   0.00000,   0.23900,   0.00000,   0.00000,1.00000,1,  100.0,  9999.000,     0.000,   1,1.0000
    36,'1 ',  1640.000,   317.042,   600.000,  -525.000,1.00900,     0,  1770.000,   0.00000,   0.15500,   0.00000,   0.00000,1.00000,1,  100.0,  9999.000,     0.000,   1,1.0000
    40,'1 ',   200.000,     4.480,   268.000,  -134.000,1.02000,     0,   500.000,   0.00000,   0.08900,   0.00000,   0.00000,1.00000,1,  100.0,  9999.000,     0.000,   1,1.0000
    43,'1 ',   325.000,   111.771,   300.000,  -220.000,1.00000,     0,   540.000,   0.00000,   0.15500,   0.00000,   0.00000,1.00000,1,  100.0,  9999.000,     0.000,   1,1.0000
    45,'1 ',  1780.000,   681.512,   850.000,  -440.000,1.05000,     0,  1982.000,   0.00000,   0.15000,   0.00000,   0.00000,1.00000,1,  100.0,  9999.000,     0.000,   1,1.0000
    47,'1 ',   110.000,    44.717,   100.000,  -100.000,1.02000,     0,   113.000,   0.00000,   0.14000,   0.00000,   0.00000,1.00000,1,  100.0,  9999.000,     0.000,   1,1.0000
    65,'1 ',  2910.000,   769.182,  1500.000, -1000.000,1.00000,     0,  3085.000,   0.00000,   0.12800,   0.00000,   0.00000,1.00000,1,  100.0,  9999.000,     0.000,   1,1.0000
    70,'1 ',  1301.000,   632.583,   992.000,  -711.000,1.05500,     0,  1199.000,   0.00000,   0.24000,   0.00000,   0.00000,1.00000,1,  100.0,  9999.000,     0.000,   1,1.0000
    77,'1 ',  7800.433,  1990.730,  2649.000, -1850.000,1.00000,     0,  5421.000,   0.00000,   0.24000,   0.00000,   0.00000,1.00000,1,  100.0,  9999.000,     0.000,   1,1.0000
    79,'1 ',  9950.000,  1540.068,  5780.000, -2000.000,1.00000,     0, 13000.000,   0.00000,   0.12700,   0.00000,   0.00000,1.00000,1,  100.0,  9999.000,     0.000,   1,1.0000
   103,'1 ',   765.000,   -84.630,   330.000,  -310.000,0.98000,     0,  1685.000,   0.00000,   0.25000,   0.00000,   0.00000,1.00000,1,  100.0,  9999.000,     0.000,   1,1.0000
   112,'1 ',  1057.000,    64.854,   400.000,  -400.000,1.02000,     0,  1022.000,   0.00000,   0.14000,   0.00000,   0.00000,1.00000,1,  100.0,  9999.000,     0.000,   1,1.0000
   116,'1 ',   594.000,   244.484,   600.000,  -300.000,1.05000,     0,   895.000,   0.00000,   0.21500,   0.00000,   0.00000,1.00000,1,  100.0,  9999.000,     0.000,   1,1.0000
   118,'1 ',  3467.000,  1888.548,  2500.000, -1000.000,1.00000,     0,  6840.000,   0.00000,   0.14000,   0.00000,   0.00000,1.00000,1,  100.0,  9999.000,     0.000,   1,1.0000
   138,'1 ',   982.700,   -96.772,   300.000,  -300.000,1.02000,     0,  2104.000,   0.00000,   0.21500,   0.00000,   0.00000,1.00000,1,  100.0,  9999.000,     0.000,   1,1.0000
   140,'1 ',  3004.000,   650.000,   650.000,  -300.000,1.02000,     0,  9000.000,   0.00000,   0.09500,   0.00000,   0.00000,1.00000,1,  100.0,  9999.000,     0.000,   1,1.0000
   144,'1 ',  1690.000,   846.136,   900.000,  -400.000,1.05000,     0,  3000.000,   0.00000,   0.24000,   0.00000,   0.00000,1.00000,1,  100.0,  9999.000,     0.000,   1,1.0000
   148,'1 ',  1680.000,   485.416,   700.000,  -300.000,1.05000,     0,  1818.000,   0.00000,   0.15500,   0.00000,   0.00000,1.00000,1,  100.0,  9999.000,     0.000,   1,1.0000
   149,'1 ',  2200.000,   544.420,   600.000,  -600.000,1.01000,     0,  2500.000,   0.00000,   0.13500,   0.00000,   0.00000,1.00000,1,  100.0,  9999.000,     0.000,   1,1.0000
   159,'1 ',  1665.000,    22.943,  9999.000, -9999.000,1.05000,     0,  2229.000,   0.00000,   0.13000,   0.00000,   0.00000,1.00000,1,  100.0,  9999.000,     0.000,   1,1.0000
   162,'1 ',   445.000,   107.598,  9999.000, -9999.000,1.00000,     0,   832.000,   0.00000,   0.19300,   0.00000,   0.00000,1.00000,1,  100.0,  9999.000,     0.000,   1,1.0000
 0 /End of Generator data, Begin Branch data
     3,      8,'1 ',   0.00179,   0.01988,   2.57600,    0.00,    0.00,    0.00,  0.00000,  0.00000,  0.00000,  0.00000,1,   0.00,   1,1.0000
     5,    -17,'1 ',   0.00977,   0.11000,   2.00000,    0.00,    0.00,    0.00,  0.00000,  0.00000,  0.00000,  0.00000,1,   0.00,   1,1.0000
     5,    160,'1 ',   0.00811,   0.13690,   2.43480,    0.00,    0.00,    0.00,  0.00000,  0.00000,  0.00000,  0.00000,1,   0.00,   1,1.0000
     7,     28,'1 ',   0.00000,  -0.00408,   0.00000,    0.00,    0.00,    0.00,  0.00000,  0.00000,  0.00000,  0.00000,1,   0.00,   1,1.0000
     8,     17,'1 ',   0.00050,   0.00530,   0.08820,    0.00,    0.00,    0.00,  0.00000,  0.00000,  0.00000,  0.00000,1,   0.00,   1,1.0000
     8,   -163,'1 ',   0.00480,   0.04360,   0.70780,    0.00,    0.00,    0.00,  0.00000,  0.00000,  0.00000,  0.00000,1,   0.00,   1,1.0000
    12,     20,'1 ',   0.00000,  -0.00634,   0.00000,    0.00,    0.00,    0.00,  0.00000,  0.00000,  0.00000,  0.00000,1,   0.00,   1,1.0000
    12,     22,'1 ',   0.00000,  -0.01188,   0.00000,    0.00,    0.00,    0.00,  0.00000,  0.00000,  0.00000,  0.00000,1,   0.00,   1,1.0000
    12,    139,'1 ',   0.00280,   0.02110,   1.01940,    0.00,    0.00, 1630.00,  0.00000,  0.00000,  0.00000,  0.00000,1,   0.00,   1,1.0000
    14,    -21,'1 ',   0.00000,  -0.00634,   0.00000,    0.00,    0.00,    0.00,  0.00000,  0.00000,  0.00000,  0.00000,1,   0.00,   1,1.0000
    14,     24,'1 ',   0.00000,  -0.00826,   0.00000,    0.00,    0.00,    0.00,  0.00000,  0.00000,  0.00000,  0.00000,1,   0.00,   1,1.0000
    14,     26,'1 ',   0.00000,  -0.01795,   0.00000,    0.00,    0.00,    0.00,  0.00000,  0.00000,  0.00000,  0.00000,1,   0.00,   1,1.0000
    14,    -29,'1 ',   0.00000,  -0.00612,   0.00000,    0.00,    0.00,    0.00,  0.00000,  0.00000,  0.00000,  0.00000,1,   0.00,   1,1.0000
    16,     19,'1 ',   0.00040,   0.00960,   0.90380,    0.00,    0.00,    0.00,  0.00000,  0.00000,  0.00000,  0.00000,1,   0.00,   1,1.0000
    16,     19,'2 ',   0.00040,   0.00960,   0.90380,    0.00,    0.00,    0.00,  0.00000,  0.00000,  0.00000,  0.00000,1,   0.00,   1,1.0000
    16,    136,'1 ',   0.00259,   0.02967,   2.15300,    0.00,    0.00, 1800.00,  0.00000,  0.00000,  0.00000,  0.00000,1,   0.00,   1,1.0000
    16,    136,'2 ',   0.00259,   0.02967,   2.15300,    0.00,    0.00, 1800.00,  0.00000,  0.00000,  0.00000,  0.00000,1,   0.00,   1,1.0000
    19,    -23,'1 ',   0.00000,  -0.01188,   0.00000,    0.00,    0.00,    0.00,  0.00000,  0.00000,  0.00000,  0.00000,1,   0.00,   1,1.0000
    19,    -25,'1 ',   0.00000,  -0.00826,   0.00000,    0.00,    0.00,    0.00,  0.00000,  0.00000,  0.00000,  0.00000,1,   0.00,   1,1.0000
    20,     21,'1 ',   0.00077,   0.01804,   1.39840,    0.00,    0.00,    0.00,  0.00000,  0.00000,  0.00000,  0.00000,1,   0.00,   1,1.0000
    22,     23,'1 ',   0.00241,   0.05865,   4.86560,    0.00,    0.00,    0.00,  0.00000,  0.00000,  0.00000,  0.00000,1,   0.00,   1,1.0000
    24,     25,'1 ',   0.00179,   0.04244,   3.39220,    0.00,    0.00,    0.00,  0.00000,  0.00000,  0.00000,  0.00000,1,   0.00,   1,1.0000
    26,     27,'1 ',   0.00207,   0.04959,   3.95160,    0.00,    0.00,    0.00,  0.00000,  0.00000,  0.00000,  0.00000,1,   0.00,   1,1.0000
    27,    139,'1 ',   0.00000,  -0.01795,   0.00000,    0.00,    0.00,    0.00,  0.00000,  0.00000,  0.00000,  0.00000,1,   0.00,   1,1.0000
    28,     29,'1 ',   0.00177,   0.04189,   3.34460,    0.00,    0.00,    0.00,  0.00000,  0.00000,  0.00000,  0.00000,1,   0.00,   1,1.0000
    31,     32,'1 ',   0.00350,   0.07000,   4.60600,    0.00,    0.00,    0.00,  0.00000,  0.00000,  0.00000,  0.00000,1,   0.00,   1,1.0000
    31,     80,'1 ',   0.00083,   0.02390,   3.30000,    0.00,    0.00,    0.00,  0.00000,  0.00000,  0.00000,  0.00000,1,   0.00,   1,1.0000
    33,     34,'1 ',   0.00200,   0.02000,   0.80000,    0.00,    0.00,    0.00,  0.00000,  0.00000,  0.00000,  0.00000,1,   0.00,   1,1.0000
    37,     38,'1 ',   0.00074,   0.01861,   1.40260,    0.00,    0.00,    0.00,  0.00000,  0.00000,  0.00000,  0.00000,1,   0.00,   1,1.0000
    37,     56,'1 ',   0.00082,   0.01668,   1.18800,    0.00,    0.00,    0.00,  0.00000,  0.00000,  0.00000,  0.00000,1,   0.00,   1,1.0000
    37,     64,'1 ',   0.00000,   0.00159,   0.12002,    0.00,    0.00,    0.00,  0.00000,  0.00000,  0.00000,  0.00000,1,   0.00,   1,1.0000
    37,     64,'2 ',   0.00000,   0.00159,   0.12002,    0.00,    0.00,    0.00,  0.00000,  0.00000,  0.00000,  0.00000,1,   0.00,   1,1.0000
    39,     46,'1 ',   0.00221,   0.03346,   0.07338,    0.00,    0.00,    0.00,  0.00000,  0.00000,  0.00000,  0.00000,1,   0.00,   1,1.0000
    39,     48,'1 ',   0.00290,   0.03800,   0.08240,    0.00,    0.00,    0.00,  0.00000,  0.00000,  0.00000,  0.00000,1,   0.00,   1,1.0000
    39,     59,'1 ',   0.00309,   0.04677,   0.10080,    0.00,    0.00,    0.00,  0.00000,  0.00000,  0.00000,  0.00000,1,   0.00,   1,1.0000
    39,     60,'1 ',   0.00226,   0.03422,   0.07506,    0.00,    0.00,    0.00,  0.00000,  0.00000,  0.00000,  0.00000,1,   0.00,   1,1.0000
    41,    -55,'1 ',   0.00047,   0.00723,   0.01624,    0.00,    0.00,    0.00,  0.00000,  0.00000,  0.00000,  0.00000,1,   0.00,   1,1.0000
    41,     58,'1 ',   0.00035,   0.00536,   0.01204,    0.00,    0.00,    0.00,  0.00000,  0.00000,  0.00000,  0.00000,1,   0.00,   1,1.0000
    42,    -50,'1 ',   0.00220,   0.03422,   0.07716,    0.00,    0.00,    0.00,  0.00000,  0.00000,  0.00000,  0.00000,1,   0.00,   1,1.0000
    42,    -50,'2 ',   0.00238,   0.03669,   0.08284,    0.00,    0.00,    0.00,  0.00000,  0.00000,  0.00000,  0.00000,1,   0.00,   1,1.0000
    42,    -57,'1 ',   0.00201,   0.03074,   0.06886,    0.00,    0.00,    0.00,  0.00000,  0.00000,  0.00000,  0.00000,1,   0.00,   1,1.0000
    42,     58,'1 ',   0.00281,   0.04296,   0.09648,    0.00,    0.00,    0.00,  0.00000,  0.00000,  0.00000,  0.00000,1,   0.00,   1,1.0000
    44,    160,'1 ',   0.00180,   0.02450,   0.43920,    0.00,    0.00,    0.00,  0.00000,  0.00000,  0.00000,  0.00000,1,   0.00,   1,1.0000
    44,    160,'2 ',   0.00180,   0.02450,   0.43920,    0.00,    0.00,    0.00,  0.00000,  0.00000,  0.00000,  0.00000,1,   0.00,   1,1.0000
    46,    -48,'1 ',   0.00029,   0.00434,   0.00950,    0.00,    0.00,    0.00,  0.00000,  0.00000,  0.00000,  0.00000,1,   0.00,   1,1.0000
    48,     55,'1 ',   0.00229,   0.01583,   0.03060,    0.00,    0.00,    0.00,  0.00000,  0.00000,  0.00000,  0.00000,1,   0.00,   1,1.0000
    48,     55,'2 ',   0.00229,   0.01583,   0.03060,    0.00,    0.00,    0.00,  0.00000,  0.00000,  0.00000,  0.00000,1,   0.00,   1,1.0000
    48,     59,'1 ',   0.00141,   0.00967,   0.01940,    0.00,    0.00,    0.00,  0.00000,  0.00000,  0.00000,  0.00000,1,   0.00,   1,1.0000
    48,     59,'2 ',   0.00141,   0.00967,   0.01940,    0.00,    0.00,    0.00,  0.00000,  0.00000,  0.00000,  0.00000,1,   0.00,   1,1.0000
    48,     59,'3 ',   0.00161,   0.00971,   0.01928,    0.00,    0.00,    0.00,  0.00000,  0.00000,  0.00000,  0.00000,1,   0.00,   1,1.0000
    48,     59,'4 ',   0.00161,   0.00971,   0.01928,    0.00,    0.00,    0.00,  0.00000,  0.00000,  0.00000,  0.00000,1,   0.00,   1,1.0000
    48,     60,'1 ',   0.00027,   0.00393,   0.00918,    0.00,    0.00,    0.00,  0.00000,  0.00000,  0.00000,  0.00000,1,   0.00,   1,1.0000
    48,     60,'2 ',   0.00027,   0.00393,   0.00918,    0.00,    0.00,    0.00,  0.00000,  0.00000,  0.00000,  0.00000,1,   0.00,   1,1.0000
    48,     60,'3 ',   0.00027,   0.00393,   0.00918,    0.00,    0.00,    0.00,  0.00000,  0.00000,  0.00000,  0.00000,1,   0.00,   1,1.0000
    48,     62,'1 ',   0.00138,   0.01116,   0.02470,    0.00,    0.00,    0.00,  0.00000,  0.00000,  0.00000,  0.00000,1,   0.00,   1,1.0000
    48,     62,'2 ',   0.00138,   0.01116,   0.02470,    0.00,    0.00,    0.00,  0.00000,  0.00000,  0.00000,  0.00000,1,   0.00,   1,1.0000
    49,    -64,'1 ',   0.00083,   0.01884,   1.66670,    0.00,    0.00,    0.00,  0.00000,  0.00000,  0.00000,  0.00000,1,   0.00,   1,1.0000
    50,     57,'1 ',   0.00037,   0.00366,   0.00830,    0.00,    0.00,    0.00,  0.00000,  0.00000,  0.00000,  0.00000,1,   0.00,   1,1.0000
    50,     58,'1 ',   0.00055,   0.00586,   0.01246,    0.00,    0.00,    0.00,  0.00000,  0.00000,  0.00000,  0.00000,1,   0.00,   1,1.0000
    52,     63,'1 ',   0.01070,   0.07905,   0.36670,    0.00,    0.00,    0.00,  0.00000,  0.00000,  0.00000,  0.00000,1,   0.00,   1,1.0000
    53,     63,'1 ',   0.01070,   0.07905,   0.36670,    0.00,    0.00,    0.00,  0.00000,  0.00000,  0.00000,  0.00000,1,   0.00,   1,1.0000
    54,    -57,'1 ',   0.00073,   0.01025,   0.02558,    0.00,    0.00,    0.00,  0.00000,  0.00000,  0.00000,  0.00000,1,   0.00,   1,1.0000
    54,    -57,'2 ',   0.00073,   0.01025,   0.02558,    0.00,    0.00,    0.00,  0.00000,  0.00000,  0.00000,  0.00000,1,   0.00,   1,1.0000
    55,     58,'1 ',   0.00119,   0.01244,   0.02798,    0.00,    0.00,    0.00,  0.00000,  0.00000,  0.00000,  0.00000,1,   0.00,   1,1.0000
    55,     58,'2 ',   0.00119,   0.01244,   0.02798,    0.00,    0.00,    0.00,  0.00000,  0.00000,  0.00000,  0.00000,1,   0.00,   1,1.0000
    55,    -62,'1 ',   0.00128,   0.00979,   0.02120,    0.00,    0.00,    0.00,  0.00000,  0.00000,  0.00000,  0.00000,1,   0.00,   1,1.0000
    57,     58,'1 ',   0.00110,   0.01189,   0.02514,    0.00,    0.00,    0.00,  0.00000,  0.00000,  0.00000,  0.00000,1,   0.00,   1,1.0000
    61,   -137,'1 ',   0.00140,   0.02640,   0.10200,    0.00,    0.00, 3070.00,  0.00000,  0.00000,  0.00000,  0.00000,1,   0.00,   1,1.0000
    61,   -150,'1 ',   0.00065,   0.01187,   0.04672,    0.00,    0.00, 3070.00,  0.00000,  0.00000,  0.00000,  0.00000,1,   0.00,   1,1.0000
    61,   -150,'2 ',   0.00065,   0.01187,   0.04672,    0.00,    0.00, 3070.00,  0.00000,  0.00000,  0.00000,  0.00000,1,   0.00,   1,1.0000
    64,   -139,'1 ',   0.00179,   0.02524,   0.53546,    0.00,    0.00,    0.00,  0.00000,  0.00000,  0.00000,  0.00000,1,   0.00,   1,1.0000
    64,   -139,'2 ',   0.00179,   0.02524,   0.53546,    0.00,    0.00,    0.00,  0.00000,  0.00000,  0.00000,  0.00000,1,   0.00,   1,1.0000
    64,   -142,'1 ',   0.00020,   0.00410,   0.29620,    0.00,    0.00,    0.00,  0.00000,  0.00000,  0.00000,  0.00000,1,   0.00,   1,1.0000
    66,    -78,'1 ',   0.00070,   0.07400,   4.87000,    0.00,    0.00,    0.00,  0.00000,  0.00000,  0.00000,  0.00000,1,   0.00,   1,1.0000
    68,     71,'1 ',   0.00006,   0.00131,   0.00378,    0.00,    0.00, 3020.00,  0.00000,  0.00000,  0.00000,  0.00000,1,   0.00,   1,1.0000
    68,     71,'2 ',   0.00006,   0.00116,   0.00332,    0.00,    0.00, 3020.00,  0.00000,  0.00000,  0.00000,  0.00000,1,   0.00,   1,1.0000
    69,     72,'1 ',   0.00001,   0.00030,   0.01434,    0.00,    0.00, 3450.00,  0.00000,  0.00000,  0.00000,  0.00000,1,   0.00,   1,1.0000
    69,     72,'2 ',   0.00001,   0.00030,   0.01844,    0.00,    0.00, 3450.00,  0.00000,  0.00000,  0.00000,  0.00000,1,   0.00,   1,1.0000
    69,     76,'1 ',   0.00023,   0.00451,   0.33320,    0.00,    0.00, 2175.00,  0.00000,  0.00000,  0.00000,  0.00000,1,   0.00,   1,1.0000
    69,     76,'2 ',   0.00020,   0.00446,   0.30500,    0.00,    0.00, 2175.00,  0.00000,  0.00000,  0.00000,  0.00000,1,   0.00,   1,1.0000
    73,    -75,'1 ',   0.00179,   0.01405,   3.68000,    0.00,    0.00,    0.00,  0.00000,  0.00000,  0.00000,  0.00000,1,   0.00,   1,1.0000
    74,    -78,'1 ',   0.00113,   0.02069,   1.85530,    0.00,    0.00,    0.00,  0.00000,  0.00000,  0.00000,  0.00000,1,   0.00,   1,1.0000
    75,     76,'1 ',   0.00196,   0.03304,   1.88000,    0.00,    0.00,    0.00,  0.00000,  0.00000,  0.00000,  0.00000,1,   0.00,   1,1.0000
    75,     78,'1 ',   0.00142,   0.02258,   1.88000,    0.00,    0.00,    0.00,  0.00000,  0.00000,  0.00000,  0.00000,1,   0.00,   1,1.0000
    76,    -78,'1 ',   0.00120,   0.02316,   1.71520,    0.00,    0.00,    0.00,  0.00000,  0.00000,  0.00000,  0.00000,1,   0.00,   1,1.0000
    76,    -78,'2 ',   0.00030,   0.02000,   3.60000,    0.00,    0.00,    0.00,  0.00000,  0.00000,  0.00000,  0.00000,1,   0.00,   1,1.0000
    76,    -82,'1 ',   0.00063,   0.01412,   1.09760,    0.00,    0.00, 3450.00,  0.00000,  0.00000,  0.00000,  0.00000,1,   0.00,   1,1.0000
    76,    -82,'2 ',   0.00109,   0.02408,   1.55540,    0.00,    0.00, 3020.00,  0.00000,  0.00000,  0.00000,  0.00000,1,   0.00,   1,1.0000
    76,    -82,'3 ',   0.00108,   0.02409,   1.55350,    0.00,    0.00, 3020.00,  0.00000,  0.00000,  0.00000,  0.00000,1,   0.00,   1,1.0000
    78,    -80,'1 ',   0.00020,   0.00820,   1.30000,    0.00,    0.00,    0.00,  0.00000,  0.00000,  0.00000,  0.00000,1,   0.00,   1,1.0000
    78,    -80,'2 ',   0.00020,   0.00820,   1.30000,    0.00,    0.00,    0.00,  0.00000,  0.00000,  0.00000,  0.00000,1,   0.00,   1,1.0000
    81,     99,'1 ',   0.00264,   0.05356,   5.29070,    0.00,    0.00, 3600.00,  0.00000,  0.00000,  0.00000,  0.00000,1,   0.00,   1,1.0000
    81,    180,'1 ',   0.00000,  -0.02667,   0.00000,    0.00,    0.00, 1732.00,  0.00000,  0.00000,  0.00000,  0.00000,1,   0.00,   1,1.0000
    82,     87,'1 ',   0.00041,   0.00737,   0.72694,    0.00,    0.00, 3450.00,  0.00000,  0.00000,  0.00000,  0.00000,1,   0.00,   1,1.0000
    82,     91,'1 ',   0.00066,   0.01266,   0.95976,    0.00,    0.00, 3020.00,  0.00000,  0.00000,  0.00000,  0.00000,1,   0.00,   1,1.0000
    82,     95,'1 ',   0.00066,   0.01266,   0.95976,    0.00,    0.00, 3020.00,  0.00000,  0.00000,  0.00000,  0.00000,1,   0.00,   1,1.0000
    83,     89,'1 ',   0.00072,   0.01382,   1.27570,    0.00,    0.00, 3600.00,  0.00000,  0.00000,  0.00000,  0.00000,1,   0.00,   1,1.0000
    83,    -94,'1 ',   0.00078,   0.01502,   1.13810,    0.00,    0.00, 3020.00,  0.00000,  0.00000,  0.00000,  0.00000,1,   0.00,   1,1.0000
    83,    -98,'1 ',   0.00074,   0.01413,   1.06630,    0.00,    0.00, 3020.00,  0.00000,  0.00000,  0.00000,  0.00000,1,   0.00,   1,1.0000
    83,    168,'1 ',   0.00000,  -0.00720,   0.00000,    0.00,    0.00, 1800.00,  0.00000,  0.00000,  0.00000,  0.00000,1,   0.00,   1,1.0000
    83,    170,'1 ',   0.00000,  -0.00864,   0.00000,    0.00,    0.00, 1800.00,  0.00000,  0.00000,  0.00000,  0.00000,1,   0.00,   1,1.0000
    83,    172,'1 ',   0.00000,  -0.01000,   0.00000,    0.00,    0.00,    0.00,  0.00000,  0.00000,  0.00000,  0.00000,1,   0.00,   1,1.0000
    84,    -99,'1 ',   0.00000,  -0.02667,   0.00000,    0.00,    0.00, 1732.00,  0.00000,  0.00000,  0.00000,  0.00000,1,   0.00,   1,1.0000
    85,   -156,'1 ',   0.00620,   0.06730,   1.11560,    0.00,    0.00,    0.00,  0.00000,  0.00000,  0.00000,  0.00000,1,   0.00,   1,1.0000
    86,    -88,'1 ',   0.00060,   0.01036,   1.01460,    0.00,    0.00, 3450.00,  0.00000,  0.00000,  0.00000,  0.00000,1,   0.00,   1,1.0000
    86,    -90,'1 ',   0.00012,   0.00238,   0.21926,    0.00,    0.00, 3600.00,  0.00000,  0.00000,  0.00000,  0.00000,1,   0.00,   1,1.0000
    86,   -180,'1 ',   0.00122,   0.02373,   2.20710,    0.00,    0.00, 3600.00,  0.00000,  0.00000,  0.00000,  0.00000,1,   0.00,   1,1.0000
    87,     88,'1 ',   0.00000,  -0.01263,   0.00000,    0.00,    0.00, 2000.00,  0.00000,  0.00000,  0.00000,  0.00000,1,   0.00,   1,1.0000
    89,     90,'1 ',   0.00000,  -0.00858,   0.00000,    0.00,    0.00, 2000.00,  0.00000,  0.00000,  0.00000,  0.00000,1,   0.00,   1,1.0000
    91,     92,'1 ',   0.00000,  -0.01263,   0.00000,    0.00,    0.00, 2400.00,  0.00000,  0.00000,  0.00000,  0.00000,1,   0.00,   1,1.0000
    92,     93,'1 ',   0.00074,   0.01428,   1.08220,    0.00,    0.00, 3020.00,  0.00000,  0.00000,  0.00000,  0.00000,1,   0.00,   1,1.0000
    93,     94,'1 ',   0.00000,  -0.01263,   0.00000,    0.00,    0.00, 2400.00,  0.00000,  0.00000,  0.00000,  0.00000,1,   0.00,   1,1.0000
    95,     96,'1 ',   0.00000,  -0.01263,   0.00000,    0.00,    0.00, 2000.00,  0.00000,  0.00000,  0.00000,  0.00000,1,   0.00,   1,1.0000
    96,     97,'1 ',   0.00074,   0.01428,   1.08220,    0.00,    0.00, 3020.00,  0.00000,  0.00000,  0.00000,  0.00000,1,   0.00,   1,1.0000
    97,     98,'1 ',   0.00000,  -0.01263,   0.00000,    0.00,    0.00, 2000.00,  0.00000,  0.00000,  0.00000,  0.00000,1,   0.00,   1,1.0000
   100,   -101,'1 ',   0.02482,   0.16938,   0.20232,    0.00,    0.00,  838.00,  0.00000,  0.00000,  0.00000,  0.00000,1,   0.00,   1,1.0000
   100,    117,'1 ',   0.01480,   0.10101,   0.12066,    0.00,    0.00,  838.00,  0.00000,  0.00000,  0.00000,  0.00000,1,   0.00,   1,1.0000
   101,    105,'1 ',   0.01382,   0.09268,   0.11060,    0.00,    0.00,  747.00,  0.00000,  0.00000,  0.00000,  0.00000,1,   0.00,   1,1.0000
   101,    106,'1 ',   0.01668,   0.11381,   0.13608,    0.00,    0.00,  838.00,  0.00000,  0.00000,  0.00000,  0.00000,1,   0.00,   1,1.0000
   101,    113,'1 ',   0.01113,   0.06678,   0.07286,    0.00,    0.00,  752.00,  0.00000,  0.00000,  0.00000,  0.00000,1,   0.00,   1,1.0000
   101,    113,'2 ',   0.01050,   0.06540,   0.06860,    0.00,    0.00,  602.00,  0.00000,  0.00000,  0.00000,  0.00000,1,   0.00,   1,1.0000
   101,    113,'3 ',   0.01105,   0.06642,   0.07160,    0.00,    0.00,  752.00,  0.00000,  0.00000,  0.00000,  0.00000,1,   0.00,   1,1.0000
   101,    117,'1 ',   0.03903,   0.27403,   0.31072,    0.00,    0.00,  747.00,  0.00000,  0.00000,  0.00000,  0.00000,1,   0.00,   1,1.0000
   102,   -104,'1 ',   0.00079,   0.01937,   1.32850,    0.00,    0.00,    0.00,  0.00000,  0.00000,  0.00000,  0.00000,1,   0.00,   1,1.0000
   102,    108,'1 ',   0.00087,   0.02087,   1.45710,    0.00,    0.00,    0.00,  0.00000,  0.00000,  0.00000,  0.00000,1,   0.00,   1,1.0000
   102,    108,'2 ',   0.00087,   0.02087,   1.45710,    0.00,    0.00,    0.00,  0.00000,  0.00000,  0.00000,  0.00000,1,   0.00,   1,1.0000
   104,   -107,'1 ',   0.00083,   0.01985,   0.00000,    0.00,    0.00, 2450.00,  0.00000,  0.00000,  0.00000,  0.00000,1,   0.00,   1,1.0000
   104,   -134,'1 ',   0.00093,   0.03644,   1.38950,    0.00,    0.00, 2450.00,  0.00000,  0.00000,  0.00000,  0.00000,1,   0.00,   1,1.0000
   104,    135,'1 ',   0.00072,   0.01600,   1.08790,    0.00,    0.00, 2450.00,  0.00000,  0.00000,  0.00000,  0.00000,1,   0.00,   1,1.0000
   105,    117,'1 ',   0.03058,   0.20460,   0.24472,    0.00,    0.00,  747.00,  0.00000,  0.00000,  0.00000,  0.00000,1,   0.00,   1,1.0000
   106,    117,'1 ',   0.02235,   0.16106,   0.18342,    0.00,    0.00,  838.00,  0.00000,  0.00000,  0.00000,  0.00000,1,   0.00,   1,1.0000
   107,    108,'1 ',   0.00153,   0.01470,   0.00000,    0.00,    0.00, 1560.00,  0.00000,  0.00000,  0.00000,  0.00000,1,   0.00,   1,1.0000
   107,   -110,'1 ',   0.00053,   0.01297,   0.00000,    0.00,    0.00, 2450.00,  0.00000,  0.00000,  0.00000,  0.00000,1,   0.00,   1,1.0000
   108,   -133,'1 ',   0.00002,  -0.01331,   0.00000,    0.00,    0.00, 1800.00,  0.00000,  0.00000,  0.00000,  0.00000,1,   0.00,   1,1.0000
   108,   -135,'1 ',   0.00002,  -0.00998,   0.00000,    0.00,    0.00, 2450.00,  0.00000,  0.00000,  0.00000,  0.00000,1,   0.00,   1,1.0000
   108,    174,'1 ',   0.00000,  -0.00935,   0.00000,    0.00,    0.00, 2134.00,  0.00000,  0.00000,  0.00000,  0.00000,1,   0.00,   1,1.0000
   108,    176,'1 ',   0.00000,  -0.00944,   0.00000,    0.00,    0.00, 2134.00,  0.00000,  0.00000,  0.00000,  0.00000,1,   0.00,   1,1.0000
   108,    178,'1 ',   0.00000,  -0.00935,   0.00000,    0.00,    0.00, 2134.00,  0.00000,  0.00000,  0.00000,  0.00000,1,   0.00,   1,1.0000
   111,    120,'1 ',   0.00000,  -0.01000,   0.00000,    0.00,    0.00, 2667.00,  0.00000,  0.00000,  0.00000,  0.00000,1,   0.00,   1,1.0000
   111,   -173,'1 ',   0.00000,  -0.01000,   0.00000,    0.00,    0.00,    0.00,  0.00000,  0.00000,  0.00000,  0.00000,1,   0.00,   1,1.0000
   114,    124,'1 ',   0.00002,  -0.00998,   0.00000,    0.00,    0.00, 1800.00,  0.00000,  0.00000,  0.00000,  0.00000,1,   0.00,   1,1.0000
   114,    126,'1 ',   0.00002,  -0.00998,   0.00000,    0.00,    0.00, 1800.00,  0.00000,  0.00000,  0.00000,  0.00000,1,   0.00,   1,1.0000
   114,   -169,'1 ',   0.00000,  -0.00720,   0.00000,    0.00,    0.00, 1800.00,  0.00000,  0.00000,  0.00000,  0.00000,1,   0.00,   1,1.0000
   114,   -171,'1 ',   0.00000,  -0.00720,   0.00000,    0.00,    0.00, 1800.00,  0.00000,  0.00000,  0.00000,  0.00000,1,   0.00,   1,1.0000
   115,   -125,'1 ',   0.00001,  -0.00666,   0.00000,    0.00,    0.00, 1800.00,  0.00000,  0.00000,  0.00000,  0.00000,1,   0.00,   1,1.0000
   115,   -127,'1 ',   0.00001,  -0.00666,   0.00000,    0.00,    0.00, 1800.00,  0.00000,  0.00000,  0.00000,  0.00000,1,   0.00,   1,1.0000
   115,    128,'1 ',   0.00001,  -0.01120,   0.00000,    0.00,    0.00, 2667.00,  0.00000,  0.00000,  0.00000,  0.00000,1,   0.00,   1,1.0000
   115,    130,'1 ',   0.00001,  -0.00720,   0.00000,    0.00,    0.00, 2667.00,  0.00000,  0.00000,  0.00000,  0.00000,1,   0.00,   1,1.0000
   119,   -123,'1 ',   0.00000,  -0.01000,   0.00000,    0.00,    0.00, 2667.00,  0.00000,  0.00000,  0.00000,  0.00000,1,   0.00,   1,1.0000
   119,   -129,'1 ',   0.00001,  -0.01120,   0.00000,    0.00,    0.00, 2667.00,  0.00000,  0.00000,  0.00000,  0.00000,1,   0.00,   1,1.0000
   119,   -131,'1 ',   0.00001,  -0.00360,   0.00000,    0.00,    0.00, 2667.00,  0.00000,  0.00000,  0.00000,  0.00000,1,   0.00,   1,1.0000
   119,    132,'1 ',   0.00001,  -0.00755,   0.00000,    0.00,    0.00,    0.00,  0.00000,  0.00000,  0.00000,  0.00000,1,   0.00,   1,1.0000
   119,    134,'1 ',   0.00001,  -0.01098,   0.00000,    0.00,    0.00, 2450.00,  0.00000,  0.00000,  0.00000,  0.00000,1,   0.00,   1,1.0000
   120,    121,'1 ',   0.00076,   0.01952,   1.82450,    0.00,    0.00, 2894.00,  0.00000,  0.00000,  0.00000,  0.00000,1,   0.00,   1,1.0000
   121,    122,'1 ',   0.00000,  -0.01000,   0.00000,    0.00,    0.00, 2667.00,  0.00000,  0.00000,  0.00000,  0.00000,1,   0.00,   1,1.0000
   122,    123,'1 ',   0.00082,   0.02119,   1.98420,    0.00,    0.00, 2894.00,  0.00000,  0.00000,  0.00000,  0.00000,1,   0.00,   1,1.0000
   124,    125,'1 ',   0.00140,   0.02338,   1.47500,    0.00,    0.00, 2396.00,  0.00000,  0.00000,  0.00000,  0.00000,1,   0.00,   1,1.0000
   126,    127,'1 ',   0.00140,   0.02338,   1.47500,    0.00,    0.00, 2396.00,  0.00000,  0.00000,  0.00000,  0.00000,1,   0.00,   1,1.0000
   128,    129,'1 ',   0.00154,   0.03409,   2.31140,    0.00,    0.00, 2450.00,  0.00000,  0.00000,  0.00000,  0.00000,1,   0.00,   1,1.0000
   130,    131,'1 ',   0.00095,   0.02102,   1.42520,    0.00,    0.00, 2450.00,  0.00000,  0.00000,  0.00000,  0.00000,1,   0.00,   1,1.0000
   132,    133,'1 ',   0.00165,   0.05719,   2.47740,    0.00,    0.00, 2450.00,  0.00000,  0.00000,  0.00000,  0.00000,1,   0.00,   1,1.0000
   136,    152,'1 ',   0.00042,   0.00905,   0.66794,    0.00,    0.00, 3600.00,  0.00000,  0.00000,  0.00000,  0.00000,1,   0.00,   1,1.0000
   137,    143,'1 ',   0.00190,   0.02580,   0.09840,    0.00,    0.00, 2320.00,  0.00000,  0.00000,  0.00000,  0.00000,1,   0.00,   1,1.0000
   137,    150,'1 ',   0.00845,   0.07034,   0.15954,    0.00,    0.00, 1160.00,  0.00000,  0.00000,  0.00000,  0.00000,1,   0.00,   1,1.0000
   139,    142,'1 ',   0.00193,   0.02779,   4.67120,    0.00,    0.00, 3600.00,  0.00000,  0.00000,  0.00000,  0.00000,1,   0.00,   1,1.0000
   139,   -147,'1 ',   0.00056,   0.01415,   1.04290,    0.00,    0.00, 3600.00,  0.00000,  0.00000,  0.00000,  0.00000,1,   0.00,   1,1.0000
   141,    143,'1 ',   0.00110,   0.01270,   0.04800,    0.00,    0.00, 2320.00,  0.00000,  0.00000,  0.00000,  0.00000,1,   0.00,   1,1.0000
   142,    145,'1 ',   0.00028,   0.00753,   0.51736,    0.00,    0.00, 3600.00,  0.00000,  0.00000,  0.00000,  0.00000,1,   0.00,   1,1.0000
   142,    145,'2 ',   0.00035,   0.00750,   0.55360,    0.00,    0.00, 3600.00,  0.00000,  0.00000,  0.00000,  0.00000,1,   0.00,   1,1.0000
   142,    147,'1 ',   0.00190,   0.03100,   4.14020,    0.00,    0.00, 3600.00,  0.00000,  0.00000,  0.00000,  0.00000,1,   0.00,   1,1.0000
   142,    151,'1 ',   0.00060,   0.01280,   0.94620,    0.00,    0.00, 3600.00,  0.00000,  0.00000,  0.00000,  0.00000,1,   0.00,   1,1.0000
   142,    153,'1 ',   0.00044,   0.01125,   0.82920,    0.00,    0.00, 3600.00,  0.00000,  0.00000,  0.00000,  0.00000,1,   0.00,   1,1.0000
   142,    153,'2 ',   0.00044,   0.01125,   0.82920,    0.00,    0.00, 3600.00,  0.00000,  0.00000,  0.00000,  0.00000,1,   0.00,   1,1.0000
   143,   -146,'1 ',   0.00138,   0.05399,   0.15252,    0.00,    0.00, 2320.00,  0.00000,  0.00000,  0.00000,  0.00000,1,   0.00,   1,1.0000
   143,   -154,'1 ',   0.00320,   0.03950,   0.14400,    0.00,    0.00, 2320.00,  0.00000,  0.00000,  0.00000,  0.00000,1,   0.00,   1,1.0000
   145,    151,'1 ',   0.00021,   0.00457,   0.32336,    0.00,    0.00, 3600.00,  0.00000,  0.00000,  0.00000,  0.00000,1,   0.00,   1,1.0000
   150,    154,'1 ',   0.00285,   0.03649,   0.12656,    0.00,    0.00, 2320.00,  0.00000,  0.00000,  0.00000,  0.00000,1,   0.00,   1,1.0000
   150,    154,'2 ',   0.00138,   0.03399,   0.11252,    0.00,    0.00, 2320.00,  0.00000,  0.00000,  0.00000,  0.00000,1,   0.00,   1,1.0000
   151,    152,'1 ',   0.00040,   0.00930,   0.68560,    0.00,    0.00, 3600.00,  0.00000,  0.00000,  0.00000,  0.00000,1,   0.00,   1,1.0000
   153,   -175,'1 ',   0.00000,  -0.00935,   0.00000,    0.00,    0.00, 2134.00,  0.00000,  0.00000,  0.00000,  0.00000,1,   0.00,   1,1.0000
   153,   -177,'1 ',   0.00000,  -0.00935,   0.00000,    0.00,    0.00, 2134.00,  0.00000,  0.00000,  0.00000,  0.00000,1,   0.00,   1,1.0000
   153,   -179,'1 ',   0.00000,  -0.00840,   0.00000,    0.00,    0.00, 2100.00,  0.00000,  0.00000,  0.00000,  0.00000,1,   0.00,   1,1.0000
   155,   -156,'1 ',   0.00240,   0.03320,   0.58490,    0.00,    0.00,    0.00,  0.00000,  0.00000,  0.00000,  0.00000,1,   0.00,   1,1.0000
   155,    158,'1 ',   0.00520,   0.06020,   1.01000,    0.00,    0.00,    0.00,  0.00000,  0.00000,  0.00000,  0.00000,1,   0.00,   1,1.0000
   155,    158,'2 ',   0.00490,   0.05370,   0.88430,    0.00,    0.00,    0.00,  0.00000,  0.00000,  0.00000,  0.00000,1,   0.00,   1,1.0000
   155,    160,'1 ',   0.00170,   0.02250,   0.39920,    0.00,    0.00,    0.00,  0.00000,  0.00000,  0.00000,  0.00000,1,   0.00,   1,1.0000
   155,    160,'2 ',   0.00210,   0.02380,   0.38450,    0.00,    0.00,    0.00,  0.00000,  0.00000,  0.00000,  0.00000,1,   0.00,   1,1.0000
   155,    165,'1 ',   0.00120,   0.01720,   0.29870,    0.00,    0.00,    0.00,  0.00000,  0.00000,  0.00000,  0.00000,1,   0.00,   1,1.0000
   155,    167,'1 ',   0.00080,   0.01060,   0.20390,    0.00,    0.00,    0.00,  0.00000,  0.00000,  0.00000,  0.00000,1,   0.00,   1,1.0000
   156,    167,'1 ',   0.00160,   0.02260,   0.38100,    0.00,    0.00,    0.00,  0.00000,  0.00000,  0.00000,  0.00000,1,   0.00,   1,1.0000
   157,    161,'1 ',   0.01080,   0.09650,   0.32960,    0.00,    0.00,    0.00,  0.00000,  0.00000,  0.00000,  0.00000,1,   0.00,   1,1.0000
   158,    164,'1 ',   0.00960,   0.08780,   1.42650,    0.00,    0.00,    0.00,  0.00000,  0.00000,  0.00000,  0.00000,1,   0.00,   1,1.0000
   158,    165,'1 ',   0.00340,   0.03920,   0.65240,    0.00,    0.00,    0.00,  0.00000,  0.00000,  0.00000,  0.00000,1,   0.00,   1,1.0000
   158,    166,'1 ',   0.00340,   0.03740,   0.62080,    0.00,    0.00,    0.00,  0.00000,  0.00000,  0.00000,  0.00000,1,   0.00,   1,1.0000
   158,    166,'2 ',   0.00340,   0.03720,   0.61820,    0.00,    0.00,    0.00,  0.00000,  0.00000,  0.00000,  0.00000,1,   0.00,   1,1.0000
   160,    166,'1 ',   0.00380,   0.03400,   0.58240,    0.00,    0.00,    0.00,  0.00000,  0.00000,  0.00000,  0.00000,1,   0.00,   1,1.0000
   160,    166,'2 ',   0.00320,   0.03490,   0.57220,    0.00,    0.00,    0.00,  0.00000,  0.00000,  0.00000,  0.00000,1,   0.00,   1,1.0000
   168,    169,'1 ',   0.00103,   0.02338,   1.58040,    0.00,    0.00, 3020.00,  0.00000,  0.00000,  0.00000,  0.00000,1,   0.00,   1,1.0000
   170,    171,'1 ',   0.00107,   0.02470,   1.52700,    0.00,    0.00, 3020.00,  0.00000,  0.00000,  0.00000,  0.00000,1,   0.00,   1,1.0000
   172,    173,'1 ',   0.00103,   0.03230,   2.79600,    0.00,    0.00,    0.00,  0.00000,  0.00000,  0.00000,  0.00000,1,   0.00,   1,1.0000
...
 0 /End of Branch data, Begin Transformer data
     2,     3,     0,'1 ',1,1,1,   0.00000,   0.00000,2,'            ',1,   1,1.0000
   0.00000,   0.01460,   100.00
1.00000,   0.000,   0.000,     0.00,     0.00,     0.00, 0,      0, 1.10000, 0.90000, 1.10000, 0.90000,  33, 0, 0.00000, 0.00000
1.00000,   0.000
     2,     4,     0,'1 ',1,1,1,   0.00000,   0.00000,2,'            ',1,   1,1.0000
...